simulator lang=spectre
parameters VDD = 1.8
//tr is (transition time)/2
parameters tr = 50p
//f is the fall time
//parameters f = 100p
//K is the signal period
parameters K = 400n


vVdd (vdd 0) vsource dc=VDD
vGnd (gnd 0) vsource dc=0


vConfig (config 0) vsource type=pwl wave=\[
+ ( 0*K   ) VDD  ( 1*K-tr) VDD
+ ( 1*K+tr) VDD  ( 2*K-tr) VDD
+ ( 2*K+tr) VDD  ( 3*K-tr) VDD
+ ( 3*K+tr) VDD  ( 4*K-tr) VDD
+ ( 4*K+tr) VDD  ( 5*K-tr) VDD
+ ( 5*K+tr) VDD  ( 6*K-tr) VDD
+ ( 6*K+tr) VDD  ( 7*K-tr) VDD
+ ( 7*K+tr) VDD  ( 8*K-tr) VDD
+ ( 8*K+tr) VDD  ( 9*K-tr) VDD
+ ( 9*K+tr) VDD  (10*K-tr) VDD
+ (10*K+tr) VDD  (11*K-tr) VDD
+ (11*K+tr) VDD  (12*K-tr) VDD
+ (12*K+tr) VDD  (13*K-tr) VDD
+ (13*K+tr) VDD  (14*K-tr) VDD
+ (14*K+tr) VDD  (15*K-tr) VDD
+ (15*K+tr) VDD  (16*K-tr) VDD
+ (16*K+tr) VDD  (17*K-tr) VDD
+ (17*K+tr) VDD  (18*K-tr) VDD
+ (18*K+tr) VDD  (19*K-tr) VDD
+ (19*K+tr) VDD  (20*K-tr) VDD
+ (20*K+tr) VDD  (21*K-tr) VDD
+ (21*K+tr) VDD  (22*K-tr) VDD
+ (22*K+tr) VDD  (23*K-tr) VDD
+ (23*K+tr) VDD  (24*K-tr) VDD
+ (24*K+tr) VDD  (25*K-tr) VDD
+ (25*K+tr) VDD  (26*K-tr) VDD
+ (26*K+tr) VDD  (27*K-tr) VDD
+ (27*K+tr) VDD  (28*K-tr) VDD
+ (28*K+tr) VDD  (29*K-tr) VDD
+ (29*K+tr) VDD  (30*K-tr) VDD
+ (30*K+tr) VDD  (31*K-tr) VDD
+ (31*K+tr) VDD  (32*K-tr) VDD
+ (32*K+tr) VDD  (33*K-tr) VDD
+ (33*K+tr) VDD  (34*K-tr) VDD
+ (34*K+tr) VDD  (35*K-tr) VDD
+ (35*K+tr) VDD  (36*K-tr) VDD
+ (36*K+tr) VDD  (37*K-tr) VDD
+ (37*K+tr) VDD  (38*K-tr) VDD
+ (38*K+tr) VDD  (39*K-tr) VDD
+ (39*K+tr) VDD  (40*K-tr) VDD
+ (40*K+tr) VDD  (41*K-tr) VDD
+ (41*K+tr) VDD  (42*K-tr) VDD
+ (42*K+tr) VDD  (43*K-tr) VDD
+ (43*K+tr) VDD  (44*K-tr) VDD
+ (44*K+tr) VDD  (45*K-tr) VDD
+ (45*K+tr) VDD  (46*K-tr) VDD
+ (46*K+tr) VDD  (47*K-tr) VDD
+ (47*K+tr) VDD  (48*K-tr) VDD
+ (48*K+tr) VDD  (49*K-tr) VDD
+ (49*K+tr) VDD  (50*K-tr) VDD
+ (50*K+tr) VDD  (51*K-tr) VDD
+ (51*K+tr) VDD  (52*K-tr) VDD
+ (52*K+tr) VDD  (53*K-tr) VDD
+ (53*K+tr) VDD  (54*K-tr) VDD
+ (54*K+tr) VDD  (55*K-tr) VDD
+ (55*K+tr) VDD  (56*K-tr) VDD
+ (56*K+tr) VDD  (57*K-tr) VDD
+ (57*K+tr) VDD  (58*K-tr) VDD
+ (58*K+tr) VDD  (59*K-tr) VDD
+ (59*K+tr) VDD  (60*K-tr) VDD
+ (60*K+tr) VDD  (61*K-tr) VDD
+ (61*K+tr) VDD  (62*K-tr) VDD
+ (62*K+tr) VDD  (63*K-tr) VDD
+ (63*K+tr) VDD  (64*K-tr) VDD
+ (64*K+tr) VDD  (65*K-tr) VDD
+ (65*K+tr) VDD  (66*K-tr) VDD
+ (66*K+tr) VDD  (67*K-tr) VDD
+ (67*K+tr) VDD  (68*K-tr) VDD
+ (68*K+tr) VDD  (69*K-tr) VDD
+ (69*K+tr) VDD  (70*K-tr) VDD
+ (70*K+tr) VDD  (71*K-tr) VDD
+ (71*K+tr) VDD  (72*K-tr) VDD
+ (72*K+tr) VDD  (73*K-tr) VDD
+ (73*K+tr) VDD  (74*K-tr) VDD
+ (74*K+tr) VDD  (75*K-tr) VDD
+ (75*K+tr) VDD  (76*K-tr) VDD
+ (76*K+tr) VDD  (77*K-tr) VDD
+ (77*K+tr) VDD  (78*K-tr) VDD
+ (78*K+tr) 0    (79*K-tr) 0
+ (79*K+tr) 0    (80*K-tr) 0
+ (80*K+tr) 0    (81*K-tr) 0
+ (81*K+tr) 0    (82*K-tr) 0
+ (82*K+tr) 0    (83*K-tr) 0
+ (83*K+tr) 0    (84*K-tr) 0
+ (84*K+tr) 0    (85*K-tr) 0
+ (85*K+tr) 0    (86*K-tr) 0
+ (86*K+tr) 0    (87*K-tr) 0
+ (87*K+tr) 0    (88*K-tr) 0
+ (88*K+tr) 0    (89*K-tr) 0
+ (89*K+tr) 0    (90*K-tr) 0
+ (90*K+tr) 0    (91*K-tr) 0
+ ]
vWL1 (WL1 0) vsource type=pwl wave=\[
+ ( 0*K   ) 0    ( 1*K-tr) 0
+ ( 1*K+tr) 0    ( 2*K-tr) 0
+ ( 2*K+tr) 0    ( 3*K-tr) 0
+ ( 3*K+tr) VDD  ( 4*K-tr) VDD
+ ( 4*K+tr) 0    ( 5*K-tr) 0
+ ( 5*K+tr) 0    ( 6*K-tr) 0
+ ( 6*K+tr) 0    ( 7*K-tr) 0
+ ( 7*K+tr) 0    ( 8*K-tr) 0
+ ( 8*K+tr) 0    ( 9*K-tr) 0
+ ( 9*K+tr) 0    (10*K-tr) 0
+ (10*K+tr) 0    (11*K-tr) 0
+ (11*K+tr) 0    (12*K-tr) 0
+ (12*K+tr) 0    (13*K-tr) 0
+ (13*K+tr) 0    (14*K-tr) 0
+ (14*K+tr) 0    (15*K-tr) 0
+ (15*K+tr) 0    (16*K-tr) 0
+ (16*K+tr) 0    (17*K-tr) 0
+ (17*K+tr) 0    (18*K-tr) 0
+ (18*K+tr) 0    (19*K-tr) 0
+ (19*K+tr) 0    (20*K-tr) 0
+ (20*K+tr) 0    (21*K-tr) 0
+ (21*K+tr) 0    (22*K-tr) 0
+ (22*K+tr) 0    (23*K-tr) 0
+ (23*K+tr) 0    (24*K-tr) 0
+ (24*K+tr) 0    (25*K-tr) 0
+ (25*K+tr) 0    (26*K-tr) 0
+ (26*K+tr) 0    (27*K-tr) 0
+ (27*K+tr) 0    (28*K-tr) 0
+ (28*K+tr) 0    (29*K-tr) 0
+ (29*K+tr) 0    (30*K-tr) 0
+ (30*K+tr) 0    (31*K-tr) 0
+ (31*K+tr) 0    (32*K-tr) 0
+ (32*K+tr) 0    (33*K-tr) 0
+ (33*K+tr) 0    (34*K-tr) 0
+ (34*K+tr) 0    (35*K-tr) 0
+ (35*K+tr) 0    (36*K-tr) 0
+ (36*K+tr) 0    (37*K-tr) 0
+ (37*K+tr) 0    (38*K-tr) 0
+ (38*K+tr) 0    (39*K-tr) 0
+ (39*K+tr) 0    (40*K-tr) 0
+ (40*K+tr) 0    (41*K-tr) 0
+ (41*K+tr) 0    (42*K-tr) 0
+ (42*K+tr) 0    (43*K-tr) 0
+ (43*K+tr) 0    (44*K-tr) 0
+ (44*K+tr) 0    (45*K-tr) 0
+ (45*K+tr) 0    (46*K-tr) 0
+ (46*K+tr) 0    (47*K-tr) 0
+ (47*K+tr) 0    (48*K-tr) 0
+ (48*K+tr) 0    (49*K-tr) 0
+ (49*K+tr) 0    (50*K-tr) 0
+ (50*K+tr) 0    (51*K-tr) 0
+ (51*K+tr) 0    (52*K-tr) 0
+ (52*K+tr) 0    (53*K-tr) 0
+ (53*K+tr) 0    (54*K-tr) 0
+ (54*K+tr) 0    (55*K-tr) 0
+ (55*K+tr) 0    (56*K-tr) 0
+ (56*K+tr) 0    (57*K-tr) 0
+ (57*K+tr) 0    (58*K-tr) 0
+ (58*K+tr) 0    (59*K-tr) 0
+ (59*K+tr) 0    (60*K-tr) 0
+ (60*K+tr) 0    (61*K-tr) 0
+ (61*K+tr) 0    (62*K-tr) 0
+ (62*K+tr) 0    (63*K-tr) 0
+ (63*K+tr) 0    (64*K-tr) 0
+ (64*K+tr) 0    (65*K-tr) 0
+ (65*K+tr) 0    (66*K-tr) 0
+ (66*K+tr) 0    (67*K-tr) 0
+ (67*K+tr) 0    (68*K-tr) 0
+ (68*K+tr) 0    (69*K-tr) 0
+ (69*K+tr) 0    (70*K-tr) 0
+ (70*K+tr) 0    (71*K-tr) 0
+ (71*K+tr) 0    (72*K-tr) 0
+ (72*K+tr) 0    (73*K-tr) 0
+ (73*K+tr) 0    (74*K-tr) 0
+ (74*K+tr) 0    (75*K-tr) 0
+ (75*K+tr) 0    (76*K-tr) 0
+ (76*K+tr) 0    (77*K-tr) 0
+ (77*K+tr) 0    (78*K-tr) 0
+ (78*K+tr) 0    (79*K-tr) 0
+ (79*K+tr) 0    (80*K-tr) 0
+ (80*K+tr) 0    (81*K-tr) 0
+ (81*K+tr) 0    (82*K-tr) 0
+ (82*K+tr) 0    (83*K-tr) 0
+ (83*K+tr) 0    (84*K-tr) 0
+ (84*K+tr) 0    (85*K-tr) 0
+ (85*K+tr) 0    (86*K-tr) 0
+ (86*K+tr) 0    (87*K-tr) 0
+ (87*K+tr) 0    (88*K-tr) 0
+ (88*K+tr) 0    (89*K-tr) 0
+ (89*K+tr) 0    (90*K-tr) 0
+ (90*K+tr) 0    (91*K-tr) 0
+ ]
vWL2 (WL2 0) vsource type=pwl wave=\[
+ ( 0*K   ) 0    ( 1*K-tr) 0
+ ( 1*K+tr) 0    ( 2*K-tr) 0
+ ( 2*K+tr) 0    ( 3*K-tr) 0
+ ( 3*K+tr) 0    ( 4*K-tr) 0
+ ( 4*K+tr) VDD  ( 5*K-tr) VDD
+ ( 5*K+tr) 0    ( 6*K-tr) 0
+ ( 6*K+tr) 0    ( 7*K-tr) 0
+ ( 7*K+tr) 0    ( 8*K-tr) 0
+ ( 8*K+tr) 0    ( 9*K-tr) 0
+ ( 9*K+tr) 0    (10*K-tr) 0
+ (10*K+tr) 0    (11*K-tr) 0
+ (11*K+tr) 0    (12*K-tr) 0
+ (12*K+tr) 0    (13*K-tr) 0
+ (13*K+tr) 0    (14*K-tr) 0
+ (14*K+tr) 0    (15*K-tr) 0
+ (15*K+tr) 0    (16*K-tr) 0
+ (16*K+tr) 0    (17*K-tr) 0
+ (17*K+tr) 0    (18*K-tr) 0
+ (18*K+tr) 0    (19*K-tr) 0
+ (19*K+tr) 0    (20*K-tr) 0
+ (20*K+tr) 0    (21*K-tr) 0
+ (21*K+tr) 0    (22*K-tr) 0
+ (22*K+tr) 0    (23*K-tr) 0
+ (23*K+tr) 0    (24*K-tr) 0
+ (24*K+tr) 0    (25*K-tr) 0
+ (25*K+tr) 0    (26*K-tr) 0
+ (26*K+tr) 0    (27*K-tr) 0
+ (27*K+tr) 0    (28*K-tr) 0
+ (28*K+tr) 0    (29*K-tr) 0
+ (29*K+tr) 0    (30*K-tr) 0
+ (30*K+tr) 0    (31*K-tr) 0
+ (31*K+tr) 0    (32*K-tr) 0
+ (32*K+tr) 0    (33*K-tr) 0
+ (33*K+tr) 0    (34*K-tr) 0
+ (34*K+tr) 0    (35*K-tr) 0
+ (35*K+tr) 0    (36*K-tr) 0
+ (36*K+tr) 0    (37*K-tr) 0
+ (37*K+tr) 0    (38*K-tr) 0
+ (38*K+tr) 0    (39*K-tr) 0
+ (39*K+tr) 0    (40*K-tr) 0
+ (40*K+tr) 0    (41*K-tr) 0
+ (41*K+tr) 0    (42*K-tr) 0
+ (42*K+tr) 0    (43*K-tr) 0
+ (43*K+tr) 0    (44*K-tr) 0
+ (44*K+tr) 0    (45*K-tr) 0
+ (45*K+tr) 0    (46*K-tr) 0
+ (46*K+tr) 0    (47*K-tr) 0
+ (47*K+tr) 0    (48*K-tr) 0
+ (48*K+tr) 0    (49*K-tr) 0
+ (49*K+tr) 0    (50*K-tr) 0
+ (50*K+tr) 0    (51*K-tr) 0
+ (51*K+tr) 0    (52*K-tr) 0
+ (52*K+tr) 0    (53*K-tr) 0
+ (53*K+tr) 0    (54*K-tr) 0
+ (54*K+tr) 0    (55*K-tr) 0
+ (55*K+tr) 0    (56*K-tr) 0
+ (56*K+tr) 0    (57*K-tr) 0
+ (57*K+tr) 0    (58*K-tr) 0
+ (58*K+tr) 0    (59*K-tr) 0
+ (59*K+tr) 0    (60*K-tr) 0
+ (60*K+tr) 0    (61*K-tr) 0
+ (61*K+tr) 0    (62*K-tr) 0
+ (62*K+tr) 0    (63*K-tr) 0
+ (63*K+tr) 0    (64*K-tr) 0
+ (64*K+tr) 0    (65*K-tr) 0
+ (65*K+tr) 0    (66*K-tr) 0
+ (66*K+tr) 0    (67*K-tr) 0
+ (67*K+tr) 0    (68*K-tr) 0
+ (68*K+tr) 0    (69*K-tr) 0
+ (69*K+tr) 0    (70*K-tr) 0
+ (70*K+tr) 0    (71*K-tr) 0
+ (71*K+tr) 0    (72*K-tr) 0
+ (72*K+tr) 0    (73*K-tr) 0
+ (73*K+tr) 0    (74*K-tr) 0
+ (74*K+tr) 0    (75*K-tr) 0
+ (75*K+tr) 0    (76*K-tr) 0
+ (76*K+tr) 0    (77*K-tr) 0
+ (77*K+tr) 0    (78*K-tr) 0
+ (78*K+tr) 0    (79*K-tr) 0
+ (79*K+tr) 0    (80*K-tr) 0
+ (80*K+tr) 0    (81*K-tr) 0
+ (81*K+tr) 0    (82*K-tr) 0
+ (82*K+tr) 0    (83*K-tr) 0
+ (83*K+tr) 0    (84*K-tr) 0
+ (84*K+tr) 0    (85*K-tr) 0
+ (85*K+tr) 0    (86*K-tr) 0
+ (86*K+tr) 0    (87*K-tr) 0
+ (87*K+tr) 0    (88*K-tr) 0
+ (88*K+tr) 0    (89*K-tr) 0
+ (89*K+tr) 0    (90*K-tr) 0
+ (90*K+tr) 0    (91*K-tr) 0
+ ]
vWL3 (WL3 0) vsource type=pwl wave=\[
+ ( 0*K   ) 0    ( 1*K-tr) 0
+ ( 1*K+tr) 0    ( 2*K-tr) 0
+ ( 2*K+tr) 0    ( 3*K-tr) 0
+ ( 3*K+tr) 0    ( 4*K-tr) 0
+ ( 4*K+tr) 0    ( 5*K-tr) 0
+ ( 5*K+tr) VDD  ( 6*K-tr) VDD
+ ( 6*K+tr) 0    ( 7*K-tr) 0
+ ( 7*K+tr) 0    ( 8*K-tr) 0
+ ( 8*K+tr) 0    ( 9*K-tr) 0
+ ( 9*K+tr) 0    (10*K-tr) 0
+ (10*K+tr) 0    (11*K-tr) 0
+ (11*K+tr) 0    (12*K-tr) 0
+ (12*K+tr) 0    (13*K-tr) 0
+ (13*K+tr) 0    (14*K-tr) 0
+ (14*K+tr) 0    (15*K-tr) 0
+ (15*K+tr) 0    (16*K-tr) 0
+ (16*K+tr) 0    (17*K-tr) 0
+ (17*K+tr) 0    (18*K-tr) 0
+ (18*K+tr) 0    (19*K-tr) 0
+ (19*K+tr) 0    (20*K-tr) 0
+ (20*K+tr) 0    (21*K-tr) 0
+ (21*K+tr) 0    (22*K-tr) 0
+ (22*K+tr) 0    (23*K-tr) 0
+ (23*K+tr) 0    (24*K-tr) 0
+ (24*K+tr) 0    (25*K-tr) 0
+ (25*K+tr) 0    (26*K-tr) 0
+ (26*K+tr) 0    (27*K-tr) 0
+ (27*K+tr) 0    (28*K-tr) 0
+ (28*K+tr) 0    (29*K-tr) 0
+ (29*K+tr) 0    (30*K-tr) 0
+ (30*K+tr) 0    (31*K-tr) 0
+ (31*K+tr) 0    (32*K-tr) 0
+ (32*K+tr) 0    (33*K-tr) 0
+ (33*K+tr) 0    (34*K-tr) 0
+ (34*K+tr) 0    (35*K-tr) 0
+ (35*K+tr) 0    (36*K-tr) 0
+ (36*K+tr) 0    (37*K-tr) 0
+ (37*K+tr) 0    (38*K-tr) 0
+ (38*K+tr) 0    (39*K-tr) 0
+ (39*K+tr) 0    (40*K-tr) 0
+ (40*K+tr) 0    (41*K-tr) 0
+ (41*K+tr) 0    (42*K-tr) 0
+ (42*K+tr) 0    (43*K-tr) 0
+ (43*K+tr) 0    (44*K-tr) 0
+ (44*K+tr) 0    (45*K-tr) 0
+ (45*K+tr) 0    (46*K-tr) 0
+ (46*K+tr) 0    (47*K-tr) 0
+ (47*K+tr) 0    (48*K-tr) 0
+ (48*K+tr) 0    (49*K-tr) 0
+ (49*K+tr) 0    (50*K-tr) 0
+ (50*K+tr) 0    (51*K-tr) 0
+ (51*K+tr) 0    (52*K-tr) 0
+ (52*K+tr) 0    (53*K-tr) 0
+ (53*K+tr) 0    (54*K-tr) 0
+ (54*K+tr) 0    (55*K-tr) 0
+ (55*K+tr) 0    (56*K-tr) 0
+ (56*K+tr) 0    (57*K-tr) 0
+ (57*K+tr) 0    (58*K-tr) 0
+ (58*K+tr) 0    (59*K-tr) 0
+ (59*K+tr) 0    (60*K-tr) 0
+ (60*K+tr) 0    (61*K-tr) 0
+ (61*K+tr) 0    (62*K-tr) 0
+ (62*K+tr) 0    (63*K-tr) 0
+ (63*K+tr) 0    (64*K-tr) 0
+ (64*K+tr) 0    (65*K-tr) 0
+ (65*K+tr) 0    (66*K-tr) 0
+ (66*K+tr) 0    (67*K-tr) 0
+ (67*K+tr) 0    (68*K-tr) 0
+ (68*K+tr) 0    (69*K-tr) 0
+ (69*K+tr) 0    (70*K-tr) 0
+ (70*K+tr) 0    (71*K-tr) 0
+ (71*K+tr) 0    (72*K-tr) 0
+ (72*K+tr) 0    (73*K-tr) 0
+ (73*K+tr) 0    (74*K-tr) 0
+ (74*K+tr) 0    (75*K-tr) 0
+ (75*K+tr) 0    (76*K-tr) 0
+ (76*K+tr) 0    (77*K-tr) 0
+ (77*K+tr) 0    (78*K-tr) 0
+ (78*K+tr) 0    (79*K-tr) 0
+ (79*K+tr) 0    (80*K-tr) 0
+ (80*K+tr) 0    (81*K-tr) 0
+ (81*K+tr) 0    (82*K-tr) 0
+ (82*K+tr) 0    (83*K-tr) 0
+ (83*K+tr) 0    (84*K-tr) 0
+ (84*K+tr) 0    (85*K-tr) 0
+ (85*K+tr) 0    (86*K-tr) 0
+ (86*K+tr) 0    (87*K-tr) 0
+ (87*K+tr) 0    (88*K-tr) 0
+ (88*K+tr) 0    (89*K-tr) 0
+ (89*K+tr) 0    (90*K-tr) 0
+ (90*K+tr) 0    (91*K-tr) 0
+ ]
vWL4 (WL4 0) vsource type=pwl wave=\[
+ ( 0*K   ) 0    ( 1*K-tr) 0
+ ( 1*K+tr) 0    ( 2*K-tr) 0
+ ( 2*K+tr) 0    ( 3*K-tr) 0
+ ( 3*K+tr) 0    ( 4*K-tr) 0
+ ( 4*K+tr) 0    ( 5*K-tr) 0
+ ( 5*K+tr) 0    ( 6*K-tr) 0
+ ( 6*K+tr) VDD  ( 7*K-tr) VDD
+ ( 7*K+tr) 0    ( 8*K-tr) 0
+ ( 8*K+tr) 0    ( 9*K-tr) 0
+ ( 9*K+tr) 0    (10*K-tr) 0
+ (10*K+tr) 0    (11*K-tr) 0
+ (11*K+tr) 0    (12*K-tr) 0
+ (12*K+tr) 0    (13*K-tr) 0
+ (13*K+tr) 0    (14*K-tr) 0
+ (14*K+tr) 0    (15*K-tr) 0
+ (15*K+tr) 0    (16*K-tr) 0
+ (16*K+tr) 0    (17*K-tr) 0
+ (17*K+tr) 0    (18*K-tr) 0
+ (18*K+tr) 0    (19*K-tr) 0
+ (19*K+tr) 0    (20*K-tr) 0
+ (20*K+tr) 0    (21*K-tr) 0
+ (21*K+tr) 0    (22*K-tr) 0
+ (22*K+tr) 0    (23*K-tr) 0
+ (23*K+tr) 0    (24*K-tr) 0
+ (24*K+tr) 0    (25*K-tr) 0
+ (25*K+tr) 0    (26*K-tr) 0
+ (26*K+tr) 0    (27*K-tr) 0
+ (27*K+tr) 0    (28*K-tr) 0
+ (28*K+tr) 0    (29*K-tr) 0
+ (29*K+tr) 0    (30*K-tr) 0
+ (30*K+tr) 0    (31*K-tr) 0
+ (31*K+tr) 0    (32*K-tr) 0
+ (32*K+tr) 0    (33*K-tr) 0
+ (33*K+tr) 0    (34*K-tr) 0
+ (34*K+tr) 0    (35*K-tr) 0
+ (35*K+tr) 0    (36*K-tr) 0
+ (36*K+tr) 0    (37*K-tr) 0
+ (37*K+tr) 0    (38*K-tr) 0
+ (38*K+tr) 0    (39*K-tr) 0
+ (39*K+tr) 0    (40*K-tr) 0
+ (40*K+tr) 0    (41*K-tr) 0
+ (41*K+tr) 0    (42*K-tr) 0
+ (42*K+tr) 0    (43*K-tr) 0
+ (43*K+tr) 0    (44*K-tr) 0
+ (44*K+tr) 0    (45*K-tr) 0
+ (45*K+tr) 0    (46*K-tr) 0
+ (46*K+tr) 0    (47*K-tr) 0
+ (47*K+tr) 0    (48*K-tr) 0
+ (48*K+tr) 0    (49*K-tr) 0
+ (49*K+tr) 0    (50*K-tr) 0
+ (50*K+tr) 0    (51*K-tr) 0
+ (51*K+tr) 0    (52*K-tr) 0
+ (52*K+tr) 0    (53*K-tr) 0
+ (53*K+tr) 0    (54*K-tr) 0
+ (54*K+tr) 0    (55*K-tr) 0
+ (55*K+tr) 0    (56*K-tr) 0
+ (56*K+tr) 0    (57*K-tr) 0
+ (57*K+tr) 0    (58*K-tr) 0
+ (58*K+tr) 0    (59*K-tr) 0
+ (59*K+tr) 0    (60*K-tr) 0
+ (60*K+tr) 0    (61*K-tr) 0
+ (61*K+tr) 0    (62*K-tr) 0
+ (62*K+tr) 0    (63*K-tr) 0
+ (63*K+tr) 0    (64*K-tr) 0
+ (64*K+tr) 0    (65*K-tr) 0
+ (65*K+tr) 0    (66*K-tr) 0
+ (66*K+tr) 0    (67*K-tr) 0
+ (67*K+tr) 0    (68*K-tr) 0
+ (68*K+tr) 0    (69*K-tr) 0
+ (69*K+tr) 0    (70*K-tr) 0
+ (70*K+tr) 0    (71*K-tr) 0
+ (71*K+tr) 0    (72*K-tr) 0
+ (72*K+tr) 0    (73*K-tr) 0
+ (73*K+tr) 0    (74*K-tr) 0
+ (74*K+tr) 0    (75*K-tr) 0
+ (75*K+tr) 0    (76*K-tr) 0
+ (76*K+tr) 0    (77*K-tr) 0
+ (77*K+tr) 0    (78*K-tr) 0
+ (78*K+tr) 0    (79*K-tr) 0
+ (79*K+tr) 0    (80*K-tr) 0
+ (80*K+tr) 0    (81*K-tr) 0
+ (81*K+tr) 0    (82*K-tr) 0
+ (82*K+tr) 0    (83*K-tr) 0
+ (83*K+tr) 0    (84*K-tr) 0
+ (84*K+tr) 0    (85*K-tr) 0
+ (85*K+tr) 0    (86*K-tr) 0
+ (86*K+tr) 0    (87*K-tr) 0
+ (87*K+tr) 0    (88*K-tr) 0
+ (88*K+tr) 0    (89*K-tr) 0
+ (89*K+tr) 0    (90*K-tr) 0
+ (90*K+tr) 0    (91*K-tr) 0
+ ]
vWL5 (WL5 0) vsource type=pwl wave=\[
+ ( 0*K   ) 0    ( 1*K-tr) 0
+ ( 1*K+tr) 0    ( 2*K-tr) 0
+ ( 2*K+tr) 0    ( 3*K-tr) 0
+ ( 3*K+tr) 0    ( 4*K-tr) 0
+ ( 4*K+tr) 0    ( 5*K-tr) 0
+ ( 5*K+tr) 0    ( 6*K-tr) 0
+ ( 6*K+tr) 0    ( 7*K-tr) 0
+ ( 7*K+tr) VDD  ( 8*K-tr) VDD
+ ( 8*K+tr) 0    ( 9*K-tr) 0
+ ( 9*K+tr) 0    (10*K-tr) 0
+ (10*K+tr) 0    (11*K-tr) 0
+ (11*K+tr) 0    (12*K-tr) 0
+ (12*K+tr) 0    (13*K-tr) 0
+ (13*K+tr) 0    (14*K-tr) 0
+ (14*K+tr) 0    (15*K-tr) 0
+ (15*K+tr) 0    (16*K-tr) 0
+ (16*K+tr) 0    (17*K-tr) 0
+ (17*K+tr) 0    (18*K-tr) 0
+ (18*K+tr) 0    (19*K-tr) 0
+ (19*K+tr) 0    (20*K-tr) 0
+ (20*K+tr) 0    (21*K-tr) 0
+ (21*K+tr) 0    (22*K-tr) 0
+ (22*K+tr) 0    (23*K-tr) 0
+ (23*K+tr) 0    (24*K-tr) 0
+ (24*K+tr) 0    (25*K-tr) 0
+ (25*K+tr) 0    (26*K-tr) 0
+ (26*K+tr) 0    (27*K-tr) 0
+ (27*K+tr) 0    (28*K-tr) 0
+ (28*K+tr) 0    (29*K-tr) 0
+ (29*K+tr) 0    (30*K-tr) 0
+ (30*K+tr) 0    (31*K-tr) 0
+ (31*K+tr) 0    (32*K-tr) 0
+ (32*K+tr) 0    (33*K-tr) 0
+ (33*K+tr) 0    (34*K-tr) 0
+ (34*K+tr) 0    (35*K-tr) 0
+ (35*K+tr) 0    (36*K-tr) 0
+ (36*K+tr) 0    (37*K-tr) 0
+ (37*K+tr) 0    (38*K-tr) 0
+ (38*K+tr) 0    (39*K-tr) 0
+ (39*K+tr) 0    (40*K-tr) 0
+ (40*K+tr) 0    (41*K-tr) 0
+ (41*K+tr) 0    (42*K-tr) 0
+ (42*K+tr) 0    (43*K-tr) 0
+ (43*K+tr) 0    (44*K-tr) 0
+ (44*K+tr) 0    (45*K-tr) 0
+ (45*K+tr) 0    (46*K-tr) 0
+ (46*K+tr) 0    (47*K-tr) 0
+ (47*K+tr) 0    (48*K-tr) 0
+ (48*K+tr) 0    (49*K-tr) 0
+ (49*K+tr) 0    (50*K-tr) 0
+ (50*K+tr) 0    (51*K-tr) 0
+ (51*K+tr) 0    (52*K-tr) 0
+ (52*K+tr) 0    (53*K-tr) 0
+ (53*K+tr) 0    (54*K-tr) 0
+ (54*K+tr) 0    (55*K-tr) 0
+ (55*K+tr) 0    (56*K-tr) 0
+ (56*K+tr) 0    (57*K-tr) 0
+ (57*K+tr) 0    (58*K-tr) 0
+ (58*K+tr) 0    (59*K-tr) 0
+ (59*K+tr) 0    (60*K-tr) 0
+ (60*K+tr) 0    (61*K-tr) 0
+ (61*K+tr) 0    (62*K-tr) 0
+ (62*K+tr) 0    (63*K-tr) 0
+ (63*K+tr) 0    (64*K-tr) 0
+ (64*K+tr) 0    (65*K-tr) 0
+ (65*K+tr) 0    (66*K-tr) 0
+ (66*K+tr) 0    (67*K-tr) 0
+ (67*K+tr) 0    (68*K-tr) 0
+ (68*K+tr) 0    (69*K-tr) 0
+ (69*K+tr) 0    (70*K-tr) 0
+ (70*K+tr) 0    (71*K-tr) 0
+ (71*K+tr) 0    (72*K-tr) 0
+ (72*K+tr) 0    (73*K-tr) 0
+ (73*K+tr) 0    (74*K-tr) 0
+ (74*K+tr) 0    (75*K-tr) 0
+ (75*K+tr) 0    (76*K-tr) 0
+ (76*K+tr) 0    (77*K-tr) 0
+ (77*K+tr) 0    (78*K-tr) 0
+ (78*K+tr) 0    (79*K-tr) 0
+ (79*K+tr) 0    (80*K-tr) 0
+ (80*K+tr) 0    (81*K-tr) 0
+ (81*K+tr) 0    (82*K-tr) 0
+ (82*K+tr) 0    (83*K-tr) 0
+ (83*K+tr) 0    (84*K-tr) 0
+ (84*K+tr) 0    (85*K-tr) 0
+ (85*K+tr) 0    (86*K-tr) 0
+ (86*K+tr) 0    (87*K-tr) 0
+ (87*K+tr) 0    (88*K-tr) 0
+ (88*K+tr) 0    (89*K-tr) 0
+ (89*K+tr) 0    (90*K-tr) 0
+ (90*K+tr) 0    (91*K-tr) 0
+ ]
vWL6 (WL6 0) vsource type=pwl wave=\[
+ ( 0*K   ) 0    ( 1*K-tr) 0
+ ( 1*K+tr) 0    ( 2*K-tr) 0
+ ( 2*K+tr) 0    ( 3*K-tr) 0
+ ( 3*K+tr) 0    ( 4*K-tr) 0
+ ( 4*K+tr) 0    ( 5*K-tr) 0
+ ( 5*K+tr) 0    ( 6*K-tr) 0
+ ( 6*K+tr) 0    ( 7*K-tr) 0
+ ( 7*K+tr) 0    ( 8*K-tr) 0
+ ( 8*K+tr) VDD  ( 9*K-tr) VDD
+ ( 9*K+tr) 0    (10*K-tr) 0
+ (10*K+tr) 0    (11*K-tr) 0
+ (11*K+tr) 0    (12*K-tr) 0
+ (12*K+tr) 0    (13*K-tr) 0
+ (13*K+tr) 0    (14*K-tr) 0
+ (14*K+tr) 0    (15*K-tr) 0
+ (15*K+tr) 0    (16*K-tr) 0
+ (16*K+tr) 0    (17*K-tr) 0
+ (17*K+tr) 0    (18*K-tr) 0
+ (18*K+tr) 0    (19*K-tr) 0
+ (19*K+tr) 0    (20*K-tr) 0
+ (20*K+tr) 0    (21*K-tr) 0
+ (21*K+tr) 0    (22*K-tr) 0
+ (22*K+tr) 0    (23*K-tr) 0
+ (23*K+tr) 0    (24*K-tr) 0
+ (24*K+tr) 0    (25*K-tr) 0
+ (25*K+tr) 0    (26*K-tr) 0
+ (26*K+tr) 0    (27*K-tr) 0
+ (27*K+tr) 0    (28*K-tr) 0
+ (28*K+tr) 0    (29*K-tr) 0
+ (29*K+tr) 0    (30*K-tr) 0
+ (30*K+tr) 0    (31*K-tr) 0
+ (31*K+tr) 0    (32*K-tr) 0
+ (32*K+tr) 0    (33*K-tr) 0
+ (33*K+tr) 0    (34*K-tr) 0
+ (34*K+tr) 0    (35*K-tr) 0
+ (35*K+tr) 0    (36*K-tr) 0
+ (36*K+tr) 0    (37*K-tr) 0
+ (37*K+tr) 0    (38*K-tr) 0
+ (38*K+tr) 0    (39*K-tr) 0
+ (39*K+tr) 0    (40*K-tr) 0
+ (40*K+tr) 0    (41*K-tr) 0
+ (41*K+tr) 0    (42*K-tr) 0
+ (42*K+tr) 0    (43*K-tr) 0
+ (43*K+tr) 0    (44*K-tr) 0
+ (44*K+tr) 0    (45*K-tr) 0
+ (45*K+tr) 0    (46*K-tr) 0
+ (46*K+tr) 0    (47*K-tr) 0
+ (47*K+tr) 0    (48*K-tr) 0
+ (48*K+tr) 0    (49*K-tr) 0
+ (49*K+tr) 0    (50*K-tr) 0
+ (50*K+tr) 0    (51*K-tr) 0
+ (51*K+tr) 0    (52*K-tr) 0
+ (52*K+tr) 0    (53*K-tr) 0
+ (53*K+tr) 0    (54*K-tr) 0
+ (54*K+tr) 0    (55*K-tr) 0
+ (55*K+tr) 0    (56*K-tr) 0
+ (56*K+tr) 0    (57*K-tr) 0
+ (57*K+tr) 0    (58*K-tr) 0
+ (58*K+tr) 0    (59*K-tr) 0
+ (59*K+tr) 0    (60*K-tr) 0
+ (60*K+tr) 0    (61*K-tr) 0
+ (61*K+tr) 0    (62*K-tr) 0
+ (62*K+tr) 0    (63*K-tr) 0
+ (63*K+tr) 0    (64*K-tr) 0
+ (64*K+tr) 0    (65*K-tr) 0
+ (65*K+tr) 0    (66*K-tr) 0
+ (66*K+tr) 0    (67*K-tr) 0
+ (67*K+tr) 0    (68*K-tr) 0
+ (68*K+tr) 0    (69*K-tr) 0
+ (69*K+tr) 0    (70*K-tr) 0
+ (70*K+tr) 0    (71*K-tr) 0
+ (71*K+tr) 0    (72*K-tr) 0
+ (72*K+tr) 0    (73*K-tr) 0
+ (73*K+tr) 0    (74*K-tr) 0
+ (74*K+tr) 0    (75*K-tr) 0
+ (75*K+tr) 0    (76*K-tr) 0
+ (76*K+tr) 0    (77*K-tr) 0
+ (77*K+tr) 0    (78*K-tr) 0
+ (78*K+tr) 0    (79*K-tr) 0
+ (79*K+tr) 0    (80*K-tr) 0
+ (80*K+tr) 0    (81*K-tr) 0
+ (81*K+tr) 0    (82*K-tr) 0
+ (82*K+tr) 0    (83*K-tr) 0
+ (83*K+tr) 0    (84*K-tr) 0
+ (84*K+tr) 0    (85*K-tr) 0
+ (85*K+tr) 0    (86*K-tr) 0
+ (86*K+tr) 0    (87*K-tr) 0
+ (87*K+tr) 0    (88*K-tr) 0
+ (88*K+tr) 0    (89*K-tr) 0
+ (89*K+tr) 0    (90*K-tr) 0
+ (90*K+tr) 0    (91*K-tr) 0
+ ]
vWL7 (WL7 0) vsource type=pwl wave=\[
+ ( 0*K   ) 0    ( 1*K-tr) 0
+ ( 1*K+tr) 0    ( 2*K-tr) 0
+ ( 2*K+tr) 0    ( 3*K-tr) 0
+ ( 3*K+tr) 0    ( 4*K-tr) 0
+ ( 4*K+tr) 0    ( 5*K-tr) 0
+ ( 5*K+tr) 0    ( 6*K-tr) 0
+ ( 6*K+tr) 0    ( 7*K-tr) 0
+ ( 7*K+tr) 0    ( 8*K-tr) 0
+ ( 8*K+tr) 0    ( 9*K-tr) 0
+ ( 9*K+tr) VDD  (10*K-tr) VDD
+ (10*K+tr) 0    (11*K-tr) 0
+ (11*K+tr) 0    (12*K-tr) 0
+ (12*K+tr) 0    (13*K-tr) 0
+ (13*K+tr) 0    (14*K-tr) 0
+ (14*K+tr) 0    (15*K-tr) 0
+ (15*K+tr) 0    (16*K-tr) 0
+ (16*K+tr) 0    (17*K-tr) 0
+ (17*K+tr) 0    (18*K-tr) 0
+ (18*K+tr) 0    (19*K-tr) 0
+ (19*K+tr) 0    (20*K-tr) 0
+ (20*K+tr) 0    (21*K-tr) 0
+ (21*K+tr) 0    (22*K-tr) 0
+ (22*K+tr) 0    (23*K-tr) 0
+ (23*K+tr) 0    (24*K-tr) 0
+ (24*K+tr) 0    (25*K-tr) 0
+ (25*K+tr) 0    (26*K-tr) 0
+ (26*K+tr) 0    (27*K-tr) 0
+ (27*K+tr) 0    (28*K-tr) 0
+ (28*K+tr) 0    (29*K-tr) 0
+ (29*K+tr) 0    (30*K-tr) 0
+ (30*K+tr) 0    (31*K-tr) 0
+ (31*K+tr) 0    (32*K-tr) 0
+ (32*K+tr) 0    (33*K-tr) 0
+ (33*K+tr) 0    (34*K-tr) 0
+ (34*K+tr) 0    (35*K-tr) 0
+ (35*K+tr) 0    (36*K-tr) 0
+ (36*K+tr) 0    (37*K-tr) 0
+ (37*K+tr) 0    (38*K-tr) 0
+ (38*K+tr) 0    (39*K-tr) 0
+ (39*K+tr) 0    (40*K-tr) 0
+ (40*K+tr) 0    (41*K-tr) 0
+ (41*K+tr) 0    (42*K-tr) 0
+ (42*K+tr) 0    (43*K-tr) 0
+ (43*K+tr) 0    (44*K-tr) 0
+ (44*K+tr) 0    (45*K-tr) 0
+ (45*K+tr) 0    (46*K-tr) 0
+ (46*K+tr) 0    (47*K-tr) 0
+ (47*K+tr) 0    (48*K-tr) 0
+ (48*K+tr) 0    (49*K-tr) 0
+ (49*K+tr) 0    (50*K-tr) 0
+ (50*K+tr) 0    (51*K-tr) 0
+ (51*K+tr) 0    (52*K-tr) 0
+ (52*K+tr) 0    (53*K-tr) 0
+ (53*K+tr) 0    (54*K-tr) 0
+ (54*K+tr) 0    (55*K-tr) 0
+ (55*K+tr) 0    (56*K-tr) 0
+ (56*K+tr) 0    (57*K-tr) 0
+ (57*K+tr) 0    (58*K-tr) 0
+ (58*K+tr) 0    (59*K-tr) 0
+ (59*K+tr) 0    (60*K-tr) 0
+ (60*K+tr) 0    (61*K-tr) 0
+ (61*K+tr) 0    (62*K-tr) 0
+ (62*K+tr) 0    (63*K-tr) 0
+ (63*K+tr) 0    (64*K-tr) 0
+ (64*K+tr) 0    (65*K-tr) 0
+ (65*K+tr) 0    (66*K-tr) 0
+ (66*K+tr) 0    (67*K-tr) 0
+ (67*K+tr) 0    (68*K-tr) 0
+ (68*K+tr) 0    (69*K-tr) 0
+ (69*K+tr) 0    (70*K-tr) 0
+ (70*K+tr) 0    (71*K-tr) 0
+ (71*K+tr) 0    (72*K-tr) 0
+ (72*K+tr) 0    (73*K-tr) 0
+ (73*K+tr) 0    (74*K-tr) 0
+ (74*K+tr) 0    (75*K-tr) 0
+ (75*K+tr) 0    (76*K-tr) 0
+ (76*K+tr) 0    (77*K-tr) 0
+ (77*K+tr) 0    (78*K-tr) 0
+ (78*K+tr) 0    (79*K-tr) 0
+ (79*K+tr) 0    (80*K-tr) 0
+ (80*K+tr) 0    (81*K-tr) 0
+ (81*K+tr) 0    (82*K-tr) 0
+ (82*K+tr) 0    (83*K-tr) 0
+ (83*K+tr) 0    (84*K-tr) 0
+ (84*K+tr) 0    (85*K-tr) 0
+ (85*K+tr) 0    (86*K-tr) 0
+ (86*K+tr) 0    (87*K-tr) 0
+ (87*K+tr) 0    (88*K-tr) 0
+ (88*K+tr) 0    (89*K-tr) 0
+ (89*K+tr) 0    (90*K-tr) 0
+ (90*K+tr) 0    (91*K-tr) 0
+ ]
vWL8 (WL8 0) vsource type=pwl wave=\[
+ ( 0*K   ) 0    ( 1*K-tr) 0
+ ( 1*K+tr) 0    ( 2*K-tr) 0
+ ( 2*K+tr) 0    ( 3*K-tr) 0
+ ( 3*K+tr) 0    ( 4*K-tr) 0
+ ( 4*K+tr) 0    ( 5*K-tr) 0
+ ( 5*K+tr) 0    ( 6*K-tr) 0
+ ( 6*K+tr) 0    ( 7*K-tr) 0
+ ( 7*K+tr) 0    ( 8*K-tr) 0
+ ( 8*K+tr) 0    ( 9*K-tr) 0
+ ( 9*K+tr) 0    (10*K-tr) 0
+ (10*K+tr) VDD  (11*K-tr) VDD
+ (11*K+tr) 0    (12*K-tr) 0
+ (12*K+tr) 0    (13*K-tr) 0
+ (13*K+tr) 0    (14*K-tr) 0
+ (14*K+tr) 0    (15*K-tr) 0
+ (15*K+tr) 0    (16*K-tr) 0
+ (16*K+tr) 0    (17*K-tr) 0
+ (17*K+tr) 0    (18*K-tr) 0
+ (18*K+tr) 0    (19*K-tr) 0
+ (19*K+tr) 0    (20*K-tr) 0
+ (20*K+tr) 0    (21*K-tr) 0
+ (21*K+tr) 0    (22*K-tr) 0
+ (22*K+tr) 0    (23*K-tr) 0
+ (23*K+tr) 0    (24*K-tr) 0
+ (24*K+tr) 0    (25*K-tr) 0
+ (25*K+tr) 0    (26*K-tr) 0
+ (26*K+tr) 0    (27*K-tr) 0
+ (27*K+tr) 0    (28*K-tr) 0
+ (28*K+tr) 0    (29*K-tr) 0
+ (29*K+tr) 0    (30*K-tr) 0
+ (30*K+tr) 0    (31*K-tr) 0
+ (31*K+tr) 0    (32*K-tr) 0
+ (32*K+tr) 0    (33*K-tr) 0
+ (33*K+tr) 0    (34*K-tr) 0
+ (34*K+tr) 0    (35*K-tr) 0
+ (35*K+tr) 0    (36*K-tr) 0
+ (36*K+tr) 0    (37*K-tr) 0
+ (37*K+tr) 0    (38*K-tr) 0
+ (38*K+tr) 0    (39*K-tr) 0
+ (39*K+tr) 0    (40*K-tr) 0
+ (40*K+tr) 0    (41*K-tr) 0
+ (41*K+tr) 0    (42*K-tr) 0
+ (42*K+tr) 0    (43*K-tr) 0
+ (43*K+tr) 0    (44*K-tr) 0
+ (44*K+tr) 0    (45*K-tr) 0
+ (45*K+tr) 0    (46*K-tr) 0
+ (46*K+tr) 0    (47*K-tr) 0
+ (47*K+tr) 0    (48*K-tr) 0
+ (48*K+tr) 0    (49*K-tr) 0
+ (49*K+tr) 0    (50*K-tr) 0
+ (50*K+tr) 0    (51*K-tr) 0
+ (51*K+tr) 0    (52*K-tr) 0
+ (52*K+tr) 0    (53*K-tr) 0
+ (53*K+tr) 0    (54*K-tr) 0
+ (54*K+tr) 0    (55*K-tr) 0
+ (55*K+tr) 0    (56*K-tr) 0
+ (56*K+tr) 0    (57*K-tr) 0
+ (57*K+tr) 0    (58*K-tr) 0
+ (58*K+tr) 0    (59*K-tr) 0
+ (59*K+tr) 0    (60*K-tr) 0
+ (60*K+tr) 0    (61*K-tr) 0
+ (61*K+tr) 0    (62*K-tr) 0
+ (62*K+tr) 0    (63*K-tr) 0
+ (63*K+tr) 0    (64*K-tr) 0
+ (64*K+tr) 0    (65*K-tr) 0
+ (65*K+tr) 0    (66*K-tr) 0
+ (66*K+tr) 0    (67*K-tr) 0
+ (67*K+tr) 0    (68*K-tr) 0
+ (68*K+tr) 0    (69*K-tr) 0
+ (69*K+tr) 0    (70*K-tr) 0
+ (70*K+tr) 0    (71*K-tr) 0
+ (71*K+tr) 0    (72*K-tr) 0
+ (72*K+tr) 0    (73*K-tr) 0
+ (73*K+tr) 0    (74*K-tr) 0
+ (74*K+tr) 0    (75*K-tr) 0
+ (75*K+tr) 0    (76*K-tr) 0
+ (76*K+tr) 0    (77*K-tr) 0
+ (77*K+tr) 0    (78*K-tr) 0
+ (78*K+tr) 0    (79*K-tr) 0
+ (79*K+tr) 0    (80*K-tr) 0
+ (80*K+tr) 0    (81*K-tr) 0
+ (81*K+tr) 0    (82*K-tr) 0
+ (82*K+tr) 0    (83*K-tr) 0
+ (83*K+tr) 0    (84*K-tr) 0
+ (84*K+tr) 0    (85*K-tr) 0
+ (85*K+tr) 0    (86*K-tr) 0
+ (86*K+tr) 0    (87*K-tr) 0
+ (87*K+tr) 0    (88*K-tr) 0
+ (88*K+tr) 0    (89*K-tr) 0
+ (89*K+tr) 0    (90*K-tr) 0
+ (90*K+tr) 0    (91*K-tr) 0
+ ]
vWL9 (WL9 0) vsource type=pwl wave=\[
+ ( 0*K   ) 0    ( 1*K-tr) 0
+ ( 1*K+tr) 0    ( 2*K-tr) 0
+ ( 2*K+tr) 0    ( 3*K-tr) 0
+ ( 3*K+tr) 0    ( 4*K-tr) 0
+ ( 4*K+tr) 0    ( 5*K-tr) 0
+ ( 5*K+tr) 0    ( 6*K-tr) 0
+ ( 6*K+tr) 0    ( 7*K-tr) 0
+ ( 7*K+tr) 0    ( 8*K-tr) 0
+ ( 8*K+tr) 0    ( 9*K-tr) 0
+ ( 9*K+tr) 0    (10*K-tr) 0
+ (10*K+tr) 0    (11*K-tr) 0
+ (11*K+tr) VDD  (12*K-tr) VDD
+ (12*K+tr) 0    (13*K-tr) 0
+ (13*K+tr) 0    (14*K-tr) 0
+ (14*K+tr) 0    (15*K-tr) 0
+ (15*K+tr) 0    (16*K-tr) 0
+ (16*K+tr) 0    (17*K-tr) 0
+ (17*K+tr) 0    (18*K-tr) 0
+ (18*K+tr) 0    (19*K-tr) 0
+ (19*K+tr) 0    (20*K-tr) 0
+ (20*K+tr) 0    (21*K-tr) 0
+ (21*K+tr) 0    (22*K-tr) 0
+ (22*K+tr) 0    (23*K-tr) 0
+ (23*K+tr) 0    (24*K-tr) 0
+ (24*K+tr) 0    (25*K-tr) 0
+ (25*K+tr) 0    (26*K-tr) 0
+ (26*K+tr) 0    (27*K-tr) 0
+ (27*K+tr) 0    (28*K-tr) 0
+ (28*K+tr) 0    (29*K-tr) 0
+ (29*K+tr) 0    (30*K-tr) 0
+ (30*K+tr) 0    (31*K-tr) 0
+ (31*K+tr) 0    (32*K-tr) 0
+ (32*K+tr) 0    (33*K-tr) 0
+ (33*K+tr) 0    (34*K-tr) 0
+ (34*K+tr) 0    (35*K-tr) 0
+ (35*K+tr) 0    (36*K-tr) 0
+ (36*K+tr) 0    (37*K-tr) 0
+ (37*K+tr) 0    (38*K-tr) 0
+ (38*K+tr) 0    (39*K-tr) 0
+ (39*K+tr) 0    (40*K-tr) 0
+ (40*K+tr) 0    (41*K-tr) 0
+ (41*K+tr) 0    (42*K-tr) 0
+ (42*K+tr) 0    (43*K-tr) 0
+ (43*K+tr) 0    (44*K-tr) 0
+ (44*K+tr) 0    (45*K-tr) 0
+ (45*K+tr) 0    (46*K-tr) 0
+ (46*K+tr) 0    (47*K-tr) 0
+ (47*K+tr) 0    (48*K-tr) 0
+ (48*K+tr) 0    (49*K-tr) 0
+ (49*K+tr) 0    (50*K-tr) 0
+ (50*K+tr) 0    (51*K-tr) 0
+ (51*K+tr) 0    (52*K-tr) 0
+ (52*K+tr) 0    (53*K-tr) 0
+ (53*K+tr) 0    (54*K-tr) 0
+ (54*K+tr) 0    (55*K-tr) 0
+ (55*K+tr) 0    (56*K-tr) 0
+ (56*K+tr) 0    (57*K-tr) 0
+ (57*K+tr) 0    (58*K-tr) 0
+ (58*K+tr) 0    (59*K-tr) 0
+ (59*K+tr) 0    (60*K-tr) 0
+ (60*K+tr) 0    (61*K-tr) 0
+ (61*K+tr) 0    (62*K-tr) 0
+ (62*K+tr) 0    (63*K-tr) 0
+ (63*K+tr) 0    (64*K-tr) 0
+ (64*K+tr) 0    (65*K-tr) 0
+ (65*K+tr) 0    (66*K-tr) 0
+ (66*K+tr) 0    (67*K-tr) 0
+ (67*K+tr) 0    (68*K-tr) 0
+ (68*K+tr) 0    (69*K-tr) 0
+ (69*K+tr) 0    (70*K-tr) 0
+ (70*K+tr) 0    (71*K-tr) 0
+ (71*K+tr) 0    (72*K-tr) 0
+ (72*K+tr) 0    (73*K-tr) 0
+ (73*K+tr) 0    (74*K-tr) 0
+ (74*K+tr) 0    (75*K-tr) 0
+ (75*K+tr) 0    (76*K-tr) 0
+ (76*K+tr) 0    (77*K-tr) 0
+ (77*K+tr) 0    (78*K-tr) 0
+ (78*K+tr) 0    (79*K-tr) 0
+ (79*K+tr) 0    (80*K-tr) 0
+ (80*K+tr) 0    (81*K-tr) 0
+ (81*K+tr) 0    (82*K-tr) 0
+ (82*K+tr) 0    (83*K-tr) 0
+ (83*K+tr) 0    (84*K-tr) 0
+ (84*K+tr) 0    (85*K-tr) 0
+ (85*K+tr) 0    (86*K-tr) 0
+ (86*K+tr) 0    (87*K-tr) 0
+ (87*K+tr) 0    (88*K-tr) 0
+ (88*K+tr) 0    (89*K-tr) 0
+ (89*K+tr) 0    (90*K-tr) 0
+ (90*K+tr) 0    (91*K-tr) 0
+ ]
vWL10 (WL10 0) vsource type=pwl wave=\[
+ ( 0*K   ) 0    ( 1*K-tr) 0
+ ( 1*K+tr) 0    ( 2*K-tr) 0
+ ( 2*K+tr) 0    ( 3*K-tr) 0
+ ( 3*K+tr) 0    ( 4*K-tr) 0
+ ( 4*K+tr) 0    ( 5*K-tr) 0
+ ( 5*K+tr) 0    ( 6*K-tr) 0
+ ( 6*K+tr) 0    ( 7*K-tr) 0
+ ( 7*K+tr) 0    ( 8*K-tr) 0
+ ( 8*K+tr) 0    ( 9*K-tr) 0
+ ( 9*K+tr) 0    (10*K-tr) 0
+ (10*K+tr) 0    (11*K-tr) 0
+ (11*K+tr) 0    (12*K-tr) 0
+ (12*K+tr) VDD  (13*K-tr) VDD
+ (13*K+tr) 0    (14*K-tr) 0
+ (14*K+tr) 0    (15*K-tr) 0
+ (15*K+tr) 0    (16*K-tr) 0
+ (16*K+tr) 0    (17*K-tr) 0
+ (17*K+tr) 0    (18*K-tr) 0
+ (18*K+tr) 0    (19*K-tr) 0
+ (19*K+tr) 0    (20*K-tr) 0
+ (20*K+tr) 0    (21*K-tr) 0
+ (21*K+tr) 0    (22*K-tr) 0
+ (22*K+tr) 0    (23*K-tr) 0
+ (23*K+tr) 0    (24*K-tr) 0
+ (24*K+tr) 0    (25*K-tr) 0
+ (25*K+tr) 0    (26*K-tr) 0
+ (26*K+tr) 0    (27*K-tr) 0
+ (27*K+tr) 0    (28*K-tr) 0
+ (28*K+tr) 0    (29*K-tr) 0
+ (29*K+tr) 0    (30*K-tr) 0
+ (30*K+tr) 0    (31*K-tr) 0
+ (31*K+tr) 0    (32*K-tr) 0
+ (32*K+tr) 0    (33*K-tr) 0
+ (33*K+tr) 0    (34*K-tr) 0
+ (34*K+tr) 0    (35*K-tr) 0
+ (35*K+tr) 0    (36*K-tr) 0
+ (36*K+tr) 0    (37*K-tr) 0
+ (37*K+tr) 0    (38*K-tr) 0
+ (38*K+tr) 0    (39*K-tr) 0
+ (39*K+tr) 0    (40*K-tr) 0
+ (40*K+tr) 0    (41*K-tr) 0
+ (41*K+tr) 0    (42*K-tr) 0
+ (42*K+tr) 0    (43*K-tr) 0
+ (43*K+tr) 0    (44*K-tr) 0
+ (44*K+tr) 0    (45*K-tr) 0
+ (45*K+tr) 0    (46*K-tr) 0
+ (46*K+tr) 0    (47*K-tr) 0
+ (47*K+tr) 0    (48*K-tr) 0
+ (48*K+tr) 0    (49*K-tr) 0
+ (49*K+tr) 0    (50*K-tr) 0
+ (50*K+tr) 0    (51*K-tr) 0
+ (51*K+tr) 0    (52*K-tr) 0
+ (52*K+tr) 0    (53*K-tr) 0
+ (53*K+tr) 0    (54*K-tr) 0
+ (54*K+tr) 0    (55*K-tr) 0
+ (55*K+tr) 0    (56*K-tr) 0
+ (56*K+tr) 0    (57*K-tr) 0
+ (57*K+tr) 0    (58*K-tr) 0
+ (58*K+tr) 0    (59*K-tr) 0
+ (59*K+tr) 0    (60*K-tr) 0
+ (60*K+tr) 0    (61*K-tr) 0
+ (61*K+tr) 0    (62*K-tr) 0
+ (62*K+tr) 0    (63*K-tr) 0
+ (63*K+tr) 0    (64*K-tr) 0
+ (64*K+tr) 0    (65*K-tr) 0
+ (65*K+tr) 0    (66*K-tr) 0
+ (66*K+tr) 0    (67*K-tr) 0
+ (67*K+tr) 0    (68*K-tr) 0
+ (68*K+tr) 0    (69*K-tr) 0
+ (69*K+tr) 0    (70*K-tr) 0
+ (70*K+tr) 0    (71*K-tr) 0
+ (71*K+tr) 0    (72*K-tr) 0
+ (72*K+tr) 0    (73*K-tr) 0
+ (73*K+tr) 0    (74*K-tr) 0
+ (74*K+tr) 0    (75*K-tr) 0
+ (75*K+tr) 0    (76*K-tr) 0
+ (76*K+tr) 0    (77*K-tr) 0
+ (77*K+tr) 0    (78*K-tr) 0
+ (78*K+tr) 0    (79*K-tr) 0
+ (79*K+tr) 0    (80*K-tr) 0
+ (80*K+tr) 0    (81*K-tr) 0
+ (81*K+tr) 0    (82*K-tr) 0
+ (82*K+tr) 0    (83*K-tr) 0
+ (83*K+tr) 0    (84*K-tr) 0
+ (84*K+tr) 0    (85*K-tr) 0
+ (85*K+tr) 0    (86*K-tr) 0
+ (86*K+tr) 0    (87*K-tr) 0
+ (87*K+tr) 0    (88*K-tr) 0
+ (88*K+tr) 0    (89*K-tr) 0
+ (89*K+tr) 0    (90*K-tr) 0
+ (90*K+tr) 0    (91*K-tr) 0
+ ]
vWL11 (WL11 0) vsource type=pwl wave=\[
+ ( 0*K   ) 0    ( 1*K-tr) 0